/*---------------------------------------------------------------------------*\
  =========                 |
  \\      /  F ield         | Unsupported Contributions for OpenFOAM
   \\    /   O peration     |
    \\  /    A nd           | Copyright (C) 2015 LEMOS, University Rostock
     \\/     M anipulation  |
-------------------------------------------------------------------------------
FoamFile
{
    version     2.0;
    format      ascii;
    class       dictionary;
    object      postChannelDictExt;
}
// * * * * * * * * * * * * * * * * * * * * * * * * * * * * * * * * * * * * * //

// Seed patches to start layering from
patches (bottomWall);

// Direction in which the layers are
component y;

// Is the mesh symmetric? If so average(symmetric fields) or
// subtract(asymmetric) contributions from both halves
symmetric true;

// Backwards compatibility mode to guarantee same behaviour
// for UMean and UPrime2Mean as in the original postChannel tool
backwardsCompatibility true;

// List of fields to be averaged. First entry is field name,
// second entry is graph name and third entry is a switch between
// mean and rms value (rms calculation makes sense for prime2Mean fields only)
fieldsAndIdentifiers
(
    (UMean Uf mean)
    (UPrime2Mean Urms rms)
    (pPrime2Mean prms mean)
);

// ************************************************************************* //
