/*--------------------------------*- C++ -*----------------------------------*\
| =========                 |                                                 |
| \\      /  F ield         | OpenFOAM Extend Project: Open Source CFD        |
|  \\    /   O peration     | Version:  2.4.x                               |
|   \\  /    A nd           | Web:      www.extend-project.de                 |
|    \\/     M anipulation  |                                                 |
\*---------------------------------------------------------------------------*/
FoamFile
{
    version     2.0;
    format      ascii;
    class       dictionary;
    object      fvSolution;
}
// * * * * * * * * * * * * * * * * * * * * * * * * * * * * * * * * * * * * * //

solvers
{
    p
    {
        solver           PCG;
        preconditioner   DIC;

        tolerance        1e-06;
        relTol           0;
    };

    pFinal
    {
        solver           PCG;
        preconditioner   DIC;

        tolerance        1e-06;
        relTol           0;
    };

    "U|UFinal"
    {
        solver           PBiCG;
        preconditioner   DILU;

        tolerance        1e-7;
        relTol           0;
    };
}

//PISO
PIMPLE
{
    checkMeshCourantNo true;
    momentumPredictor yes;

    nCorrectors     4;
    nNonOrthogonalCorrectors 1;

	pRefCell		0;
	pRefValue       0;
}

// ************************************************************************* //
